/*--------------------------------*- C++ -*----------------------------------*\
| =========                 |                                                 |
| \\      /  F ield         | OpenFOAM: The Open Source CFD Toolbox           |
|  \\    /   O peration     | Version:  2212                                  |
|   \\  /    A nd           | Website:  www.openfoam.com                      |
|    \\/     M anipulation  |                                                 |
\*---------------------------------------------------------------------------*/
// * * * * * * * * * * * * * * * * * * * * * * * * * * * * * * * * * * * * * //
FoamFile
{
    version         2;
    format          ascii;
    class           dictionary;
    location        "system";
    object          controlDict;
}

application     interIsoFoam;

startFrom       latestTime;

startTime       0;

stopAt          endTime;

endTime         3.2;

deltaT          5e-06;

writeControl    adjustableRunTime;

writeInterval   0.02;

purgeWrite      0;

writeFormat     binary;

writePrecision  6;

writeCompression off;

timeFormat      general;

timePrecision   6;

runTimeModifiable yes;

adjustTimeStep  no;

maxCo           1;

maxAlphaCo      0.2;

maxDeltaT       1;

maxCapillaryNum 5;

libs            ( "libfvOptionArtificialViscousInterfaceForce.so" 
				  "libisoAdvection_wispCorr.so");

functions
{
    alphaVolume
    {
        enabled         true;
        type            volFieldValue;
        libs            ( "libfieldFunctionObjects.so" );
        fields          ( alpha.water );
        writeFields     no;
        writeControl    writeTime;
        regionType      all;
        operation       volIntegrate;
        log             true;
    }
    components1
    {
        type            components;
        libs            ( fieldFunctionObjects );
        field           U;
        enabled         true;
        executeControl  timeStep;
        executeInterval 1;
        writeControl    timeStep;
        writeInterval   100000;
    }
    minMaxU
    {
        type            fieldMinMax;
        libs            ( fieldFunctionObjects );
        writeToFile     yes;
        log             no;
        location        no;
        mode            component;
        fields          ( Ux Uy Uz );
    }
    interfaceHeight1
    {
        type            interfaceHeight;
        libs            ( fieldFunctionObjects );
        locations       ( ( 0 0 0.000225 ) );
        alpha           alpha.water;
        liquid          true;
        direction       ( -1 0 0 );
        interpolationScheme cellPoint;
        writePrecision  8;
    }
}


// ************************************************************************* //
