/*--------------------------------*- C++ -*----------------------------------*\
  =========                 |
  \\      /  F ield         | OpenFOAM: The Open Source CFD Toolbox
   \\    /   O peration     | Website:  https://openfoam.org
    \\  /    A nd           | Version:  6
     \\/     M anipulation  |
\*---------------------------------------------------------------------------*/
FoamFile
{
    version     2.0;
    format      ascii;
    class       featureEdgeMesh;
    location    "constant/triSurface";
    object      array.eMesh;
}
// * * * * * * * * * * * * * * * * * * * * * * * * * * * * * * * * * * * * * //


// points:

922
(
(0 0.002 0)
(0.0036 0.002 0)
(0.0036 0.002 0.00045)
(0 0.002 0.00045)
(0.0036 0 0)
(0.0036 0 0.00045)
(0 0 0.00045)
(0 0 0)
(0.00242507 0.000201577 0)
(0.00230365 0.000224739 0)
(0.0019541 0.000272515 0)
(0.00160979 0.000338197 0)
(0.00244974 0.000206283 0)
(0.00259646 0.000437476 0)
(0.00253691 0.000254206 0)
(0.0025541 0.000272515 0)
(0.00163113 0.000892835 0)
(0.00160039 0.00161256 0)
(0.00198097 0.00168516 0)
(0.00226309 0.00174579 0)
(0.00247362 0.00178595 0)
(0.00244974 0.00179372 0)
(0.00228244 0.0017618 0)
(0.00196887 0.00170717 0)
(0.00160354 0.00163748 0)
(0.00230365 0.000575261 0)
(0.0018 0.0008 0)
(0.00220354 0.000437476 0)
(0.0022004 0.000412558 0)
(0.0016459 0.000872515 0)
(0.00228244 0.000238197 0)
(0.00196887 0.000292835 0)
(0.00160354 0.000362524 0)
(0.00182507 0.000801577 0)
(0.00232638 0.000585955 0)
(0.00259021 0.000461803 0)
(0.00259646 0.00163748 -7e-05)
(0.00259021 0.0016618 -7e-05)
(0.00249635 0.00142474 -7e-05)
(0.00251756 0.0014382 -7e-05)
(0.00253691 0.00145421 -7e-05)
(0.00235026 0.00179372 -7e-05)
(0.00232638 0.00178595 -7e-05)
(0.00249635 0.00177526 -7e-05)
(0.00247362 0.00178595 -7e-05)
(0.00244974 0.00179372 -7e-05)
(0.00230365 0.00177526 -7e-05)
(0.00228244 0.0017618 -7e-05)
(0.00226309 0.00174579 -7e-05)
(0.00242507 0.00179842 -7e-05)
(0.0024 0.0018 -7e-05)
(0.00251756 0.0017618 -7e-05)
(0.00223113 0.00170717 -7e-05)
(0.00221903 0.00168516 -7e-05)
(0.00259961 0.00158744 -7e-05)
(0.00259961 0.00161256 -7e-05)
(0.00256887 0.00170717 -7e-05)
(0.0025541 0.00172748 -7e-05)
(0.00259646 0.00156252 -7e-05)
(0.00220979 0.0016618 -7e-05)
(0.00220354 0.00163748 -7e-05)
(0.0022004 0.00161256 -7e-05)
(0.0022004 0.00158744 -7e-05)
(0.00220354 0.00156252 -7e-05)
(0.00220979 0.0015382 -7e-05)
(0.0022459 0.00172748 -7e-05)
(0.00259021 0.0015382 -7e-05)
(0.00221903 0.00151484 -7e-05)
(0.00258097 0.00151484 -7e-05)
(0.00223113 0.00149284 -7e-05)
(0.00256887 0.00149284 -7e-05)
(0.0022459 0.00147251 -7e-05)
(0.0025541 0.00147251 -7e-05)
(0.00226309 0.00145421 -7e-05)
(0.00244974 0.00140628 -7e-05)
(0.00247362 0.00141404 -7e-05)
(0.00228244 0.0014382 -7e-05)
(0.00230365 0.00142474 -7e-05)
(0.00237493 0.00179842 -7e-05)
(0.00253691 0.00174579 -7e-05)
(0.00232638 0.00141404 -7e-05)
(0.00235026 0.00140628 -7e-05)
(0.00237493 0.00140158 -7e-05)
(0.0024 0.0014 -7e-05)
(0.00242507 0.00140158 -7e-05)
(0.00258097 0.00168516 -7e-05)
(0.00259646 0.000437476 -7e-05)
(0.00259021 0.000461803 -7e-05)
(0.00249635 0.000224739 -7e-05)
(0.00251756 0.000238197 -7e-05)
(0.00253691 0.000254206 -7e-05)
(0.00235026 0.000593717 -7e-05)
(0.00232638 0.000585955 -7e-05)
(0.00247362 0.000585955 -7e-05)
(0.00244974 0.000593717 -7e-05)
(0.00249635 0.000575261 -7e-05)
(0.00230365 0.000575261 -7e-05)
(0.00228244 0.000561803 -7e-05)
(0.00226309 0.000545794 -7e-05)
(0.00242507 0.000598423 -7e-05)
(0.0024 0.0006 -7e-05)
(0.00251756 0.000561803 -7e-05)
(0.00223113 0.000507165 -7e-05)
(0.00221903 0.000485156 -7e-05)
(0.00259961 0.000387442 -7e-05)
(0.00259961 0.000412558 -7e-05)
(0.00256887 0.000507165 -7e-05)
(0.0025541 0.000527485 -7e-05)
(0.00259646 0.000362524 -7e-05)
(0.00220979 0.000461803 -7e-05)
(0.00220354 0.000437476 -7e-05)
(0.0022004 0.000412558 -7e-05)
(0.0022004 0.000387442 -7e-05)
(0.00220354 0.000362524 -7e-05)
(0.00220979 0.000338197 -7e-05)
(0.0022459 0.000527485 -7e-05)
(0.00259021 0.000338197 -7e-05)
(0.00221903 0.000314844 -7e-05)
(0.00258097 0.000314844 -7e-05)
(0.00223113 0.000292835 -7e-05)
(0.00256887 0.000292835 -7e-05)
(0.0022459 0.000272515 -7e-05)
(0.0025541 0.000272515 -7e-05)
(0.00226309 0.000254206 -7e-05)
(0.00244974 0.000206283 -7e-05)
(0.00247362 0.000214045 -7e-05)
(0.00228244 0.000238197 -7e-05)
(0.00230365 0.000224739 -7e-05)
(0.00237493 0.000598423 -7e-05)
(0.00253691 0.000545794 -7e-05)
(0.00232638 0.000214045 -7e-05)
(0.00235026 0.000206283 -7e-05)
(0.00237493 0.000201577 -7e-05)
(0.0024 0.0002 -7e-05)
(0.00242507 0.000201577 -7e-05)
(0.00258097 0.000485156 -7e-05)
(0.00139646 0.000437476 -7e-05)
(0.00139021 0.000461803 -7e-05)
(0.00129635 0.000224739 -7e-05)
(0.00131756 0.000238197 -7e-05)
(0.00133691 0.000254206 -7e-05)
(0.00115026 0.000593717 -7e-05)
(0.00112637 0.000585955 -7e-05)
(0.00129635 0.000575261 -7e-05)
(0.00127363 0.000585955 -7e-05)
(0.00124974 0.000593717 -7e-05)
(0.00110365 0.000575261 -7e-05)
(0.00108244 0.000561803 -7e-05)
(0.00106309 0.000545794 -7e-05)
(0.00122507 0.000598423 -7e-05)
(0.0012 0.0006 -7e-05)
(0.00131756 0.000561803 -7e-05)
(0.00103113 0.000507165 -7e-05)
(0.00101903 0.000485156 -7e-05)
(0.00139961 0.000387442 -7e-05)
(0.00139961 0.000412558 -7e-05)
(0.00136887 0.000507165 -7e-05)
(0.0013541 0.000527485 -7e-05)
(0.00139646 0.000362524 -7e-05)
(0.00100979 0.000461803 -7e-05)
(0.00100354 0.000437476 -7e-05)
(0.0010004 0.000412558 -7e-05)
(0.0010004 0.000387442 -7e-05)
(0.00100354 0.000362524 -7e-05)
(0.00100979 0.000338197 -7e-05)
(0.0010459 0.000527485 -7e-05)
(0.00139021 0.000338197 -7e-05)
(0.00101903 0.000314844 -7e-05)
(0.00138096 0.000314844 -7e-05)
(0.00103113 0.000292835 -7e-05)
(0.00136887 0.000292835 -7e-05)
(0.0010459 0.000272515 -7e-05)
(0.0013541 0.000272515 -7e-05)
(0.00106309 0.000254206 -7e-05)
(0.00124974 0.000206283 -7e-05)
(0.00127363 0.000214045 -7e-05)
(0.00108244 0.000238197 -7e-05)
(0.00110365 0.000224739 -7e-05)
(0.00117493 0.000598423 -7e-05)
(0.00133691 0.000545794 -7e-05)
(0.00112637 0.000214045 -7e-05)
(0.00115026 0.000206283 -7e-05)
(0.00117493 0.000201577 -7e-05)
(0.0012 0.0002 -7e-05)
(0.00122507 0.000201577 -7e-05)
(0.00138096 0.000485156 -7e-05)
(0.00259646 0.00103748 -7e-05)
(0.00259021 0.0010618 -7e-05)
(0.00249635 0.000824739 -7e-05)
(0.00251756 0.000838197 -7e-05)
(0.00253691 0.000854206 -7e-05)
(0.00235026 0.00119372 -7e-05)
(0.00232638 0.00118596 -7e-05)
(0.00249635 0.00117526 -7e-05)
(0.00247362 0.00118596 -7e-05)
(0.00244974 0.00119372 -7e-05)
(0.00230365 0.00117526 -7e-05)
(0.00228244 0.0011618 -7e-05)
(0.00226309 0.00114579 -7e-05)
(0.00242507 0.00119842 -7e-05)
(0.0024 0.0012 -7e-05)
(0.00251756 0.0011618 -7e-05)
(0.00223113 0.00110716 -7e-05)
(0.00221903 0.00108516 -7e-05)
(0.00259961 0.000987442 -7e-05)
(0.00259961 0.00101256 -7e-05)
(0.00256887 0.00110716 -7e-05)
(0.0025541 0.00112749 -7e-05)
(0.00259646 0.000962524 -7e-05)
(0.00220979 0.0010618 -7e-05)
(0.00220354 0.00103748 -7e-05)
(0.0022004 0.00101256 -7e-05)
(0.0022004 0.000987442 -7e-05)
(0.00220354 0.000962524 -7e-05)
(0.00220979 0.000938197 -7e-05)
(0.0022459 0.00112749 -7e-05)
(0.00259021 0.000938197 -7e-05)
(0.00221903 0.000914844 -7e-05)
(0.00258097 0.000914844 -7e-05)
(0.00223113 0.000892835 -7e-05)
(0.00256887 0.000892835 -7e-05)
(0.0022459 0.000872515 -7e-05)
(0.0025541 0.000872515 -7e-05)
(0.00226309 0.000854206 -7e-05)
(0.00244974 0.000806283 -7e-05)
(0.00247362 0.000814045 -7e-05)
(0.00228244 0.000838197 -7e-05)
(0.00230365 0.000824739 -7e-05)
(0.00237493 0.00119842 -7e-05)
(0.00253691 0.00114579 -7e-05)
(0.00232638 0.000814045 -7e-05)
(0.00235026 0.000806283 -7e-05)
(0.00237493 0.000801577 -7e-05)
(0.0024 0.0008 -7e-05)
(0.00242507 0.000801577 -7e-05)
(0.00258097 0.00108516 -7e-05)
(0.00199646 0.000437476 -7e-05)
(0.00199021 0.000461803 -7e-05)
(0.00189635 0.000224739 -7e-05)
(0.00191756 0.000238197 -7e-05)
(0.00193691 0.000254206 -7e-05)
(0.00175026 0.000593717 -7e-05)
(0.00172637 0.000585955 -7e-05)
(0.00189635 0.000575261 -7e-05)
(0.00187363 0.000585955 -7e-05)
(0.00184974 0.000593717 -7e-05)
(0.00170365 0.000575261 -7e-05)
(0.00168244 0.000561803 -7e-05)
(0.00166309 0.000545794 -7e-05)
(0.00182507 0.000598423 -7e-05)
(0.0018 0.0006 -7e-05)
(0.00191756 0.000561803 -7e-05)
(0.00163113 0.000507165 -7e-05)
(0.00161904 0.000485156 -7e-05)
(0.0019996 0.000387442 -7e-05)
(0.0019996 0.000412558 -7e-05)
(0.00196887 0.000507165 -7e-05)
(0.0019541 0.000527485 -7e-05)
(0.00199646 0.000362524 -7e-05)
(0.00160979 0.000461803 -7e-05)
(0.00160354 0.000437476 -7e-05)
(0.00160039 0.000412558 -7e-05)
(0.00160039 0.000387442 -7e-05)
(0.00160354 0.000362524 -7e-05)
(0.00160979 0.000338197 -7e-05)
(0.0016459 0.000527485 -7e-05)
(0.00199021 0.000338197 -7e-05)
(0.00161904 0.000314844 -7e-05)
(0.00198097 0.000314844 -7e-05)
(0.00163113 0.000292835 -7e-05)
(0.00196887 0.000292835 -7e-05)
(0.0016459 0.000272515 -7e-05)
(0.0019541 0.000272515 -7e-05)
(0.00166309 0.000254206 -7e-05)
(0.00184974 0.000206283 -7e-05)
(0.00187363 0.000214045 -7e-05)
(0.00168244 0.000238197 -7e-05)
(0.00170365 0.000224739 -7e-05)
(0.00177493 0.000598423 -7e-05)
(0.00193691 0.000545794 -7e-05)
(0.00172637 0.000214045 -7e-05)
(0.00175026 0.000206283 -7e-05)
(0.00177493 0.000201577 -7e-05)
(0.0018 0.0002 -7e-05)
(0.00182507 0.000201577 -7e-05)
(0.00198097 0.000485156 -7e-05)
(0.00139646 0.00163748 -7e-05)
(0.00139021 0.0016618 -7e-05)
(0.00129635 0.00142474 -7e-05)
(0.00131756 0.0014382 -7e-05)
(0.00133691 0.00145421 -7e-05)
(0.00115026 0.00179372 -7e-05)
(0.00112637 0.00178595 -7e-05)
(0.00129635 0.00177526 -7e-05)
(0.00127363 0.00178595 -7e-05)
(0.00124974 0.00179372 -7e-05)
(0.00110365 0.00177526 -7e-05)
(0.00108244 0.0017618 -7e-05)
(0.00106309 0.00174579 -7e-05)
(0.00122507 0.00179842 -7e-05)
(0.0012 0.0018 -7e-05)
(0.00131756 0.0017618 -7e-05)
(0.00103113 0.00170717 -7e-05)
(0.00101903 0.00168516 -7e-05)
(0.00139961 0.00158744 -7e-05)
(0.00139961 0.00161256 -7e-05)
(0.00136887 0.00170717 -7e-05)
(0.0013541 0.00172748 -7e-05)
(0.00139646 0.00156252 -7e-05)
(0.00100979 0.0016618 -7e-05)
(0.00100354 0.00163748 -7e-05)
(0.0010004 0.00161256 -7e-05)
(0.0010004 0.00158744 -7e-05)
(0.00100354 0.00156252 -7e-05)
(0.00100979 0.0015382 -7e-05)
(0.0010459 0.00172748 -7e-05)
(0.00139021 0.0015382 -7e-05)
(0.00101903 0.00151484 -7e-05)
(0.00138096 0.00151484 -7e-05)
(0.00103113 0.00149284 -7e-05)
(0.00136887 0.00149284 -7e-05)
(0.0010459 0.00147251 -7e-05)
(0.0013541 0.00147251 -7e-05)
(0.00106309 0.00145421 -7e-05)
(0.00124974 0.00140628 -7e-05)
(0.00127363 0.00141404 -7e-05)
(0.00108244 0.0014382 -7e-05)
(0.00110365 0.00142474 -7e-05)
(0.00117493 0.00179842 -7e-05)
(0.00133691 0.00174579 -7e-05)
(0.00112637 0.00141404 -7e-05)
(0.00115026 0.00140628 -7e-05)
(0.00117493 0.00140158 -7e-05)
(0.0012 0.0014 -7e-05)
(0.00122507 0.00140158 -7e-05)
(0.00138096 0.00168516 -7e-05)
(0.00199646 0.00163748 -7e-05)
(0.00199021 0.0016618 -7e-05)
(0.00189635 0.00142474 -7e-05)
(0.00191756 0.0014382 -7e-05)
(0.00193691 0.00145421 -7e-05)
(0.00175026 0.00179372 -7e-05)
(0.00172637 0.00178595 -7e-05)
(0.00189635 0.00177526 -7e-05)
(0.00187363 0.00178595 -7e-05)
(0.00184974 0.00179372 -7e-05)
(0.00170365 0.00177526 -7e-05)
(0.00168244 0.0017618 -7e-05)
(0.00166309 0.00174579 -7e-05)
(0.00182507 0.00179842 -7e-05)
(0.0018 0.0018 -7e-05)
(0.00191756 0.0017618 -7e-05)
(0.00163113 0.00170717 -7e-05)
(0.00161904 0.00168516 -7e-05)
(0.0019996 0.00158744 -7e-05)
(0.0019996 0.00161256 -7e-05)
(0.00196887 0.00170717 -7e-05)
(0.0019541 0.00172748 -7e-05)
(0.00199646 0.00156252 -7e-05)
(0.00160979 0.0016618 -7e-05)
(0.00160354 0.00163748 -7e-05)
(0.00160039 0.00161256 -7e-05)
(0.00160039 0.00158744 -7e-05)
(0.00160354 0.00156252 -7e-05)
(0.00160979 0.0015382 -7e-05)
(0.0016459 0.00172748 -7e-05)
(0.00199021 0.0015382 -7e-05)
(0.00161904 0.00151484 -7e-05)
(0.00198097 0.00151484 -7e-05)
(0.00163113 0.00149284 -7e-05)
(0.00196887 0.00149284 -7e-05)
(0.0016459 0.00147251 -7e-05)
(0.0019541 0.00147251 -7e-05)
(0.00166309 0.00145421 -7e-05)
(0.00184974 0.00140628 -7e-05)
(0.00187363 0.00141404 -7e-05)
(0.00168244 0.0014382 -7e-05)
(0.00170365 0.00142474 -7e-05)
(0.00177493 0.00179842 -7e-05)
(0.00193691 0.00174579 -7e-05)
(0.00172637 0.00141404 -7e-05)
(0.00175026 0.00140628 -7e-05)
(0.00177493 0.00140158 -7e-05)
(0.0018 0.0014 -7e-05)
(0.00182507 0.00140158 -7e-05)
(0.00198097 0.00168516 -7e-05)
(0.00106309 0.000854206 -7e-05)
(0.00108244 0.000838197 -7e-05)
(0.00129635 0.00117526 -7e-05)
(0.00127363 0.00118596 -7e-05)
(0.00106309 0.00114579 -7e-05)
(0.0010459 0.00112749 -7e-05)
(0.00136887 0.000892835 -7e-05)
(0.00138096 0.000914844 -7e-05)
(0.00110365 0.000824739 -7e-05)
(0.00124974 0.00119372 -7e-05)
(0.00103113 0.00110716 -7e-05)
(0.00139021 0.000938197 -7e-05)
(0.00112637 0.000814045 -7e-05)
(0.00122507 0.00119842 -7e-05)
(0.00101903 0.00108516 -7e-05)
(0.00139646 0.000962524 -7e-05)
(0.00115026 0.000806283 -7e-05)
(0.0012 0.0012 -7e-05)
(0.00100979 0.0010618 -7e-05)
(0.00139961 0.000987442 -7e-05)
(0.00117493 0.000801577 -7e-05)
(0.00100354 0.00103748 -7e-05)
(0.00139961 0.00101256 -7e-05)
(0.0012 0.0008 -7e-05)
(0.0010004 0.00101256 -7e-05)
(0.00139646 0.00103748 -7e-05)
(0.00122507 0.000801577 -7e-05)
(0.0010004 0.000987442 -7e-05)
(0.00139021 0.0010618 -7e-05)
(0.00124974 0.000806283 -7e-05)
(0.00100354 0.000962524 -7e-05)
(0.00138096 0.00108516 -7e-05)
(0.00117493 0.00119842 -7e-05)
(0.00127363 0.000814045 -7e-05)
(0.00100979 0.000938197 -7e-05)
(0.00136887 0.00110716 -7e-05)
(0.00115026 0.00119372 -7e-05)
(0.00129635 0.000824739 -7e-05)
(0.00101903 0.000914844 -7e-05)
(0.0013541 0.00112749 -7e-05)
(0.00112637 0.00118596 -7e-05)
(0.00131756 0.000838197 -7e-05)
(0.00103113 0.000892835 -7e-05)
(0.00133691 0.00114579 -7e-05)
(0.00110365 0.00117526 -7e-05)
(0.00133691 0.000854206 -7e-05)
(0.0010459 0.000872515 -7e-05)
(0.00131756 0.0011618 -7e-05)
(0.00108244 0.0011618 -7e-05)
(0.0013541 0.000872515 -7e-05)
(0.00166309 0.000854206 -7e-05)
(0.00168244 0.000838197 -7e-05)
(0.00189635 0.00117526 -7e-05)
(0.00187363 0.00118596 -7e-05)
(0.00166309 0.00114579 -7e-05)
(0.0016459 0.00112749 -7e-05)
(0.00196887 0.000892835 -7e-05)
(0.00198097 0.000914844 -7e-05)
(0.00170365 0.000824739 -7e-05)
(0.00184974 0.00119372 -7e-05)
(0.00163113 0.00110716 -7e-05)
(0.00199021 0.000938197 -7e-05)
(0.00172637 0.000814045 -7e-05)
(0.00182507 0.00119842 -7e-05)
(0.00161904 0.00108516 -7e-05)
(0.00199646 0.000962524 -7e-05)
(0.00175026 0.000806283 -7e-05)
(0.0018 0.0012 -7e-05)
(0.00160979 0.0010618 -7e-05)
(0.0019996 0.000987442 -7e-05)
(0.00177493 0.000801577 -7e-05)
(0.00160354 0.00103748 -7e-05)
(0.0019996 0.00101256 -7e-05)
(0.0018 0.0008 -7e-05)
(0.00160039 0.00101256 -7e-05)
(0.00199646 0.00103748 -7e-05)
(0.00182507 0.000801577 -7e-05)
(0.00160039 0.000987442 -7e-05)
(0.00199021 0.0010618 -7e-05)
(0.00184974 0.000806283 -7e-05)
(0.00160354 0.000962524 -7e-05)
(0.00198097 0.00108516 -7e-05)
(0.00177493 0.00119842 -7e-05)
(0.00187363 0.000814045 -7e-05)
(0.00160979 0.000938197 -7e-05)
(0.00196887 0.00110716 -7e-05)
(0.00175026 0.00119372 -7e-05)
(0.00189635 0.000824739 -7e-05)
(0.00161904 0.000914844 -7e-05)
(0.0019541 0.00112749 -7e-05)
(0.00172637 0.00118596 -7e-05)
(0.00191756 0.000838197 -7e-05)
(0.00163113 0.000892835 -7e-05)
(0.00193691 0.00114579 -7e-05)
(0.00170365 0.00117526 -7e-05)
(0.00193691 0.000854206 -7e-05)
(0.0016459 0.000872515 -7e-05)
(0.00191756 0.0011618 -7e-05)
(0.00168244 0.0011618 -7e-05)
(0.0019541 0.000872515 -7e-05)
(0.00243952 0.000204335 0)
(0.00229597 0.000229611 0)
(0.00196524 0.000287846 0)
(0.0016065 0.000351013 0)
(0.00259272 0.000452022 0)
(0.00253933 0.00025678 0)
(0.00164115 0.000879046 0)
(0.00160202 0.00162539 0)
(0.00197534 0.00169539 0)
(0.00226863 0.00175038 0)
(0.00246805 0.00178777 0)
(0.0023107 0.000578581 0)
(0.00181517 0.000800954 0)
(0.00220123 0.000419153 0)
(0.0010004 0.000412558 0)
(0.0010004 0.000387442 0)
(0.00100354 0.000362524 0)
(0.0024 0.0002 0)
(0.00100979 0.000338197 0)
(0.00101903 0.000314844 0)
(0.00237493 0.000201577 0)
(0.00103113 0.000292835 0)
(0.0010459 0.000272515 0)
(0.00235026 0.000206283 0)
(0.00232638 0.000214045 0)
(0.00106309 0.000254206 0)
(0.00108244 0.000238197 0)
(0.00110365 0.000224739 0)
(0.00112637 0.000214045 0)
(0.00193691 0.000254206 0)
(0.00191756 0.000238197 0)
(0.00115026 0.000206283 0)
(0.00117493 0.000201577 0)
(0.00189635 0.000224739 0)
(0.00187363 0.000214045 0)
(0.0012 0.0002 0)
(0.00122507 0.000201577 0)
(0.00184974 0.000206283 0)
(0.00182507 0.000201577 0)
(0.00139646 0.000362524 0)
(0.00139961 0.000387442 0)
(0.00139021 0.000338197 0)
(0.00161904 0.000314844 0)
(0.00138096 0.000314844 0)
(0.00163113 0.000292835 0)
(0.00136887 0.000292835 0)
(0.0016459 0.000272515 0)
(0.0013541 0.000272515 0)
(0.00166309 0.000254206 0)
(0.00133691 0.000254206 0)
(0.00168244 0.000238197 0)
(0.00131756 0.000238197 0)
(0.00170365 0.000224739 0)
(0.00129635 0.000224739 0)
(0.00172637 0.000214045 0)
(0.00127363 0.000214045 0)
(0.00175026 0.000206283 0)
(0.00124974 0.000206283 0)
(0.00177493 0.000201577 0)
(0.0018 0.0002 0)
(0.00247362 0.000214045 0)
(0.00259961 0.000412558 0)
(0.00249635 0.000224739 0)
(0.00251756 0.000238197 0)
(0.00259961 0.000387442 0)
(0.00259646 0.000362524 0)
(0.00259021 0.000338197 0)
(0.00258097 0.000314844 0)
(0.00256887 0.000292835 0)
(0.00100354 0.00103748 0)
(0.0010004 0.00101256 0)
(0.0010004 0.00161256 0)
(0.0010004 0.00158744 0)
(0.00100354 0.00156252 0)
(0.00100979 0.0010618 0)
(0.00101903 0.00108516 0)
(0.00100979 0.0015382 0)
(0.00101903 0.00151484 0)
(0.00103113 0.00110716 0)
(0.0010459 0.00112749 0)
(0.00103113 0.00149284 0)
(0.0010459 0.00147251 0)
(0.00106309 0.00114579 0)
(0.00108244 0.0011618 0)
(0.00106309 0.00145421 0)
(0.00108244 0.0014382 0)
(0.00110365 0.00117526 0)
(0.00112637 0.00118596 0)
(0.00110365 0.00142474 0)
(0.00115026 0.00119372 0)
(0.00112637 0.00141404 0)
(0.00117493 0.00119842 0)
(0.00115026 0.00140628 0)
(0.0012 0.0012 0)
(0.00117493 0.00140158 0)
(0.00122507 0.00119842 0)
(0.0012 0.0014 0)
(0.00124974 0.00119372 0)
(0.00122507 0.00140158 0)
(0.00127363 0.00118596 0)
(0.00124974 0.00140628 0)
(0.00129635 0.00117526 0)
(0.00127363 0.00141404 0)
(0.00131756 0.0011618 0)
(0.00129635 0.00142474 0)
(0.00133691 0.00114579 0)
(0.00131756 0.0014382 0)
(0.0013541 0.00112749 0)
(0.00133691 0.00145421 0)
(0.00136887 0.00110716 0)
(0.0013541 0.00147251 0)
(0.00138096 0.00108516 0)
(0.00136887 0.00149284 0)
(0.00139021 0.0010618 0)
(0.00138096 0.00151484 0)
(0.00139646 0.00103748 0)
(0.00139021 0.0015382 0)
(0.00139961 0.000987442 0)
(0.00139961 0.00101256 0)
(0.00139646 0.00156252 0)
(0.00139961 0.00158744 0)
(0.00161904 0.000914844 0)
(0.00160979 0.000938197 0)
(0.00160354 0.000962524 0)
(0.00160039 0.00158744 0)
(0.00160354 0.00156252 0)
(0.00160039 0.000987442 0)
(0.00160039 0.00101256 0)
(0.00160979 0.0015382 0)
(0.00161904 0.00151484 0)
(0.00160354 0.00103748 0)
(0.00160979 0.0010618 0)
(0.00163113 0.00149284 0)
(0.0016459 0.00147251 0)
(0.00161904 0.00108516 0)
(0.00163113 0.00110716 0)
(0.00166309 0.00145421 0)
(0.00168244 0.0014382 0)
(0.0016459 0.00112749 0)
(0.00166309 0.00114579 0)
(0.00170365 0.00142474 0)
(0.00172637 0.00141404 0)
(0.00168244 0.0011618 0)
(0.00170365 0.00117526 0)
(0.00175026 0.00140628 0)
(0.00177493 0.00140158 0)
(0.0018 0.0014 0)
(0.00172637 0.00118596 0)
(0.00182507 0.00140158 0)
(0.00175026 0.00119372 0)
(0.00184974 0.00140628 0)
(0.00177493 0.00119842 0)
(0.00187363 0.00141404 0)
(0.0018 0.0012 0)
(0.00189635 0.00142474 0)
(0.00182507 0.00119842 0)
(0.00191756 0.0014382 0)
(0.00184974 0.00119372 0)
(0.00193691 0.00145421 0)
(0.00187363 0.00118596 0)
(0.0019541 0.00147251 0)
(0.00189635 0.00117526 0)
(0.00196887 0.00149284 0)
(0.00191756 0.0011618 0)
(0.00198097 0.00151484 0)
(0.00193691 0.00114579 0)
(0.00199021 0.0015382 0)
(0.0019541 0.00112749 0)
(0.00199646 0.00156252 0)
(0.00196887 0.00110716 0)
(0.0019996 0.00158744 0)
(0.00198097 0.00108516 0)
(0.00199021 0.0010618 0)
(0.0019996 0.00101256 0)
(0.00199646 0.00103748 0)
(0.00220354 0.00103748 0)
(0.0022004 0.00101256 0)
(0.0019996 0.00161256 0)
(0.00220979 0.0010618 0)
(0.00199646 0.00163748 0)
(0.00221903 0.00108516 0)
(0.00199021 0.0016618 0)
(0.00223113 0.00110716 0)
(0.0022459 0.00112749 0)
(0.0022459 0.00172748 0)
(0.00226309 0.00114579 0)
(0.00228244 0.0011618 0)
(0.00223113 0.00170717 0)
(0.00221903 0.00168516 0)
(0.00230365 0.00117526 0)
(0.00232638 0.00118596 0)
(0.00220979 0.0016618 0)
(0.00220354 0.00163748 0)
(0.00235026 0.00119372 0)
(0.00237493 0.00119842 0)
(0.0022004 0.00161256 0)
(0.0022004 0.00158744 0)
(0.0024 0.0012 0)
(0.00242507 0.00119842 0)
(0.00220354 0.00156252 0)
(0.00220979 0.0015382 0)
(0.00244974 0.00119372 0)
(0.00247362 0.00118596 0)
(0.00221903 0.00151484 0)
(0.00223113 0.00149284 0)
(0.00249635 0.00117526 0)
(0.00251756 0.0011618 0)
(0.0022459 0.00147251 0)
(0.00226309 0.00145421 0)
(0.00253691 0.00114579 0)
(0.00228244 0.0014382 0)
(0.0025541 0.00112749 0)
(0.00230365 0.00142474 0)
(0.00232638 0.00141404 0)
(0.00235026 0.00140628 0)
(0.00237493 0.00140158 0)
(0.0024 0.0014 0)
(0.00256887 0.00110716 0)
(0.00242507 0.00140158 0)
(0.00258097 0.00108516 0)
(0.00244974 0.00140628 0)
(0.00247362 0.00141404 0)
(0.00249635 0.00142474 0)
(0.00259021 0.0010618 0)
(0.00251756 0.0014382 0)
(0.00259646 0.00103748 0)
(0.00253691 0.00145421 0)
(0.00259961 0.000987442 0)
(0.00259961 0.00101256 0)
(0.0025541 0.00147251 0)
(0.00249635 0.00177526 0)
(0.00256887 0.00149284 0)
(0.00258097 0.00151484 0)
(0.00251756 0.0017618 0)
(0.00253691 0.00174579 0)
(0.00259021 0.0015382 0)
(0.0025541 0.00172748 0)
(0.00256887 0.00170717 0)
(0.00259646 0.00156252 0)
(0.00259961 0.00158744 0)
(0.00258097 0.00168516 0)
(0.00259021 0.0016618 0)
(0.00259961 0.00161256 0)
(0.00259646 0.00163748 0)
(0.00242507 0.00179842 0)
(0.00100354 0.00163748 0)
(0.00100979 0.0016618 0)
(0.0024 0.0018 0)
(0.00101903 0.00168516 0)
(0.00103113 0.00170717 0)
(0.00237493 0.00179842 0)
(0.00235026 0.00179372 0)
(0.0010459 0.00172748 0)
(0.00106309 0.00174579 0)
(0.00232638 0.00178595 0)
(0.00230365 0.00177526 0)
(0.00108244 0.0017618 0)
(0.00110365 0.00177526 0)
(0.00112637 0.00178595 0)
(0.00115026 0.00179372 0)
(0.0019541 0.00172748 0)
(0.00193691 0.00174579 0)
(0.00117493 0.00179842 0)
(0.0012 0.0018 0)
(0.00191756 0.0017618 0)
(0.00189635 0.00177526 0)
(0.00122507 0.00179842 0)
(0.00187363 0.00178595 0)
(0.00184974 0.00179372 0)
(0.00139961 0.00161256 0)
(0.00139646 0.00163748 0)
(0.00160979 0.0016618 0)
(0.00139021 0.0016618 0)
(0.00161904 0.00168516 0)
(0.00138096 0.00168516 0)
(0.00163113 0.00170717 0)
(0.00136887 0.00170717 0)
(0.0016459 0.00172748 0)
(0.0013541 0.00172748 0)
(0.00166309 0.00174579 0)
(0.00133691 0.00174579 0)
(0.00168244 0.0017618 0)
(0.00131756 0.0017618 0)
(0.00170365 0.00177526 0)
(0.00129635 0.00177526 0)
(0.00172637 0.00178595 0)
(0.00127363 0.00178595 0)
(0.00175026 0.00179372 0)
(0.00124974 0.00179372 0)
(0.00177493 0.00179842 0)
(0.0018 0.0018 0)
(0.00182507 0.00179842 0)
(0.00228244 0.000561803 0)
(0.00226309 0.000545794 0)
(0.00177493 0.000801577 0)
(0.0022459 0.000527485 0)
(0.00175026 0.000806283 0)
(0.00223113 0.000507165 0)
(0.00172637 0.000814045 0)
(0.00221903 0.000485156 0)
(0.00170365 0.000824739 0)
(0.00220979 0.000461803 0)
(0.00168244 0.000838197 0)
(0.0022004 0.000387442 0)
(0.00220354 0.000362524 0)
(0.00166309 0.000854206 0)
(0.00220979 0.000338197 0)
(0.00221903 0.000314844 0)
(0.00139646 0.000962524 0)
(0.00223113 0.000292835 0)
(0.0022459 0.000272515 0)
(0.00139021 0.000938197 0)
(0.00138096 0.000914844 0)
(0.00226309 0.000254206 0)
(0.00136887 0.000892835 0)
(0.0013541 0.000872515 0)
(0.00198097 0.000314844 0)
(0.00199021 0.000338197 0)
(0.00133691 0.000854206 0)
(0.00131756 0.000838197 0)
(0.00199646 0.000362524 0)
(0.0019996 0.000387442 0)
(0.00129635 0.000824739 0)
(0.00127363 0.000814045 0)
(0.0019996 0.000412558 0)
(0.00199646 0.000437476 0)
(0.00124974 0.000806283 0)
(0.00122507 0.000801577 0)
(0.00199021 0.000461803 0)
(0.00198097 0.000485156 0)
(0.0010004 0.000987442 0)
(0.00100354 0.000437476 0)
(0.00100354 0.000962524 0)
(0.00100979 0.000938197 0)
(0.00100979 0.000461803 0)
(0.00101903 0.000485156 0)
(0.00101903 0.000914844 0)
(0.00103113 0.000892835 0)
(0.00103113 0.000507165 0)
(0.0010459 0.000527485 0)
(0.0010459 0.000872515 0)
(0.00106309 0.000545794 0)
(0.00106309 0.000854206 0)
(0.00108244 0.000561803 0)
(0.00108244 0.000838197 0)
(0.00110365 0.000575261 0)
(0.00110365 0.000824739 0)
(0.00112637 0.000585955 0)
(0.00112637 0.000814045 0)
(0.00115026 0.000593717 0)
(0.00115026 0.000806283 0)
(0.00117493 0.000598423 0)
(0.00117493 0.000801577 0)
(0.0012 0.0006 0)
(0.0012 0.0008 0)
(0.00122507 0.000598423 0)
(0.00124974 0.000593717 0)
(0.00196887 0.000507165 0)
(0.0019541 0.000527485 0)
(0.00127363 0.000585955 0)
(0.00193691 0.000545794 0)
(0.00129635 0.000575261 0)
(0.00131756 0.000561803 0)
(0.00191756 0.000561803 0)
(0.00189635 0.000575261 0)
(0.00133691 0.000545794 0)
(0.0013541 0.000527485 0)
(0.00187363 0.000585955 0)
(0.00184974 0.000593717 0)
(0.00136887 0.000507165 0)
(0.00138096 0.000485156 0)
(0.00182507 0.000598423 0)
(0.0018 0.0006 0)
(0.00139021 0.000461803 0)
(0.00139646 0.000437476 0)
(0.00177493 0.000598423 0)
(0.00175026 0.000593717 0)
(0.00139961 0.000412558 0)
(0.00172637 0.000585955 0)
(0.00170365 0.000575261 0)
(0.00160039 0.000387442 0)
(0.00160039 0.000412558 0)
(0.00168244 0.000561803 0)
(0.00160354 0.000437476 0)
(0.00160979 0.000461803 0)
(0.00166309 0.000545794 0)
(0.0016459 0.000527485 0)
(0.00161904 0.000485156 0)
(0.00163113 0.000507165 0)
(0.0019996 0.000987442 0)
(0.0022004 0.000987442 0)
(0.00199646 0.000962524 0)
(0.00220354 0.000962524 0)
(0.00199021 0.000938197 0)
(0.00220979 0.000938197 0)
(0.00198097 0.000914844 0)
(0.00221903 0.000914844 0)
(0.00196887 0.000892835 0)
(0.00223113 0.000892835 0)
(0.0019541 0.000872515 0)
(0.0022459 0.000872515 0)
(0.00193691 0.000854206 0)
(0.00226309 0.000854206 0)
(0.00191756 0.000838197 0)
(0.00228244 0.000838197 0)
(0.00189635 0.000824739 0)
(0.00230365 0.000824739 0)
(0.00187363 0.000814045 0)
(0.00232638 0.000814045 0)
(0.00184974 0.000806283 0)
(0.00235026 0.000806283 0)
(0.00237493 0.000801577 0)
(0.00235026 0.000593717 0)
(0.0024 0.0008 0)
(0.00237493 0.000598423 0)
(0.00242507 0.000801577 0)
(0.0024 0.0006 0)
(0.00244974 0.000806283 0)
(0.00242507 0.000598423 0)
(0.00247362 0.000814045 0)
(0.00244974 0.000593717 0)
(0.00249635 0.000824739 0)
(0.00247362 0.000585955 0)
(0.00251756 0.000838197 0)
(0.00249635 0.000575261 0)
(0.00253691 0.000854206 0)
(0.00251756 0.000561803 0)
(0.0025541 0.000872515 0)
(0.00253691 0.000545794 0)
(0.00256887 0.000892835 0)
(0.0025541 0.000527485 0)
(0.00258097 0.000914844 0)
(0.00256887 0.000507165 0)
(0.00259021 0.000938197 0)
(0.00258097 0.000485156 0)
(0.00259646 0.000962524 0)
)


// edges:

940
(
(6 5)
(4 7)
(386 387)
(388 389)
(390 391)
(392 393)
(387 394)
(389 395)
(391 396)
(393 397)
(394 398)
(395 399)
(396 400)
(397 401)
(398 402)
(399 403)
(400 404)
(401 405)
(402 406)
(404 407)
(405 408)
(406 409)
(407 410)
(408 411)
(409 412)
(410 413)
(411 414)
(412 415)
(413 416)
(414 417)
(403 418)
(415 419)
(416 420)
(417 421)
(418 422)
(419 423)
(420 424)
(421 425)
(422 426)
(423 427)
(424 428)
(425 429)
(426 430)
(427 431)
(428 432)
(429 433)
(430 434)
(431 435)
(432 386)
(433 388)
(434 390)
(435 392)
(436 437)
(438 439)
(440 441)
(442 443)
(437 444)
(439 445)
(441 446)
(443 447)
(444 448)
(445 449)
(446 450)
(447 451)
(448 452)
(449 453)
(450 454)
(451 455)
(452 456)
(454 457)
(455 458)
(456 459)
(457 460)
(458 461)
(459 462)
(460 463)
(461 464)
(462 465)
(463 466)
(464 467)
(453 468)
(465 469)
(466 470)
(467 471)
(468 472)
(469 473)
(470 474)
(471 475)
(472 476)
(473 477)
(474 478)
(475 479)
(476 480)
(477 481)
(478 482)
(479 483)
(480 484)
(481 485)
(482 436)
(483 438)
(484 440)
(485 442)
(36 37)
(38 39)
(39 40)
(41 42)
(43 44)
(44 45)
(42 46)
(46 47)
(47 48)
(45 49)
(49 50)
(51 43)
(52 53)
(54 55)
(56 57)
(58 54)
(53 59)
(59 60)
(55 36)
(60 61)
(61 62)
(62 63)
(63 64)
(48 65)
(65 52)
(66 58)
(64 67)
(68 66)
(67 69)
(70 68)
(69 71)
(72 70)
(40 72)
(71 73)
(74 75)
(73 76)
(76 77)
(50 78)
(78 41)
(75 38)
(57 79)
(79 51)
(77 80)
(80 81)
(81 82)
(82 83)
(83 84)
(84 74)
(37 85)
(85 56)
(86 87)
(88 89)
(89 90)
(91 92)
(93 94)
(95 93)
(92 96)
(96 97)
(97 98)
(94 99)
(99 100)
(101 95)
(102 103)
(104 105)
(106 107)
(108 104)
(103 109)
(109 110)
(105 86)
(110 111)
(111 112)
(112 113)
(113 114)
(115 102)
(98 115)
(116 108)
(114 117)
(118 116)
(117 119)
(120 118)
(119 121)
(122 120)
(90 122)
(121 123)
(124 125)
(126 127)
(123 126)
(100 128)
(128 91)
(125 88)
(107 129)
(129 101)
(127 130)
(130 131)
(131 132)
(132 133)
(133 134)
(134 124)
(87 135)
(135 106)
(1 2)
(0 1)
(3 0)
(2 3)
(136 137)
(138 139)
(139 140)
(141 142)
(143 144)
(144 145)
(142 146)
(146 147)
(147 148)
(145 149)
(149 150)
(151 143)
(152 153)
(154 155)
(156 157)
(158 154)
(153 159)
(159 160)
(155 136)
(160 161)
(161 162)
(162 163)
(163 164)
(148 165)
(165 152)
(166 158)
(164 167)
(168 166)
(167 169)
(170 168)
(169 171)
(172 170)
(140 172)
(171 173)
(174 175)
(173 176)
(176 177)
(150 178)
(178 141)
(175 138)
(157 179)
(179 151)
(177 180)
(180 181)
(181 182)
(182 183)
(183 184)
(184 174)
(137 185)
(185 156)
(186 187)
(188 189)
(189 190)
(191 192)
(193 194)
(194 195)
(192 196)
(196 197)
(197 198)
(195 199)
(199 200)
(201 193)
(202 203)
(204 205)
(206 207)
(208 204)
(203 209)
(209 210)
(205 186)
(210 211)
(211 212)
(212 213)
(213 214)
(198 215)
(215 202)
(216 208)
(214 217)
(218 216)
(217 219)
(220 218)
(219 221)
(222 220)
(190 222)
(221 223)
(224 225)
(223 226)
(226 227)
(200 228)
(228 191)
(225 188)
(207 229)
(229 201)
(227 230)
(230 231)
(231 232)
(232 233)
(233 234)
(234 224)
(187 235)
(235 206)
(5 2)
(4 5)
(1 4)
(7 0)
(6 7)
(3 6)
(236 237)
(238 239)
(239 240)
(241 242)
(243 244)
(244 245)
(242 246)
(246 247)
(247 248)
(245 249)
(249 250)
(251 243)
(252 253)
(254 255)
(256 257)
(258 254)
(259 260)
(253 259)
(255 236)
(260 261)
(261 262)
(262 263)
(263 264)
(248 265)
(265 252)
(266 258)
(264 267)